/*--------------------------------*- C++ -*----------------------------------*\
| =========                 |                                                 |
| \\      /  F ield         | OpenFOAM: The Open Source CFD Toolbox           |
|  \\    /   O peration     | Version:  2412                                  |
|   \\  /    A nd           | Website:  www.openfoam.com                      |
|    \\/     M anipulation  |                                                 |
\*---------------------------------------------------------------------------*/
FoamFile
{
    version     2.0;
    format      ascii;
    arch        "LSB;label=32;scalar=64";
    class       extendedFeatureEdgeMesh;
    location    "constant/extendedFeatureEdgeMesh";
    object      hydro_assembly.extendedFeatureEdgeMesh;
}
// * * * * * * * * * * * * * * * * * * * * * * * * * * * * * * * * * * * * * //

// points

2968
(
(0.119543 0.134907 0.0104587)
(0.185759 -0.105984 0.0281861)
(0.199765 -0.0991141 0.0318928)
(0.22674 -0.0839698 0.0389977)
(0.127473 -0.131581 0.0125995)
(0.134568 -0.128592 0.0145071)
(0.146892 -0.123355 0.0178117)
(0.150383 -0.121856 0.0187457)
(0.153852 0.120355 0.0196701)
(0.144261 0.124477 0.0171043)
(0.138912 0.126769 0.0156934)
(0.125694 0.132327 0.0121185)
(0.124805 0.132701 0.0118792)
(0.123916 0.133074 0.0116397)
(0.186069 -0.105906 0.0286223)
(0.187613 -0.105184 0.0290038)
(0.225217 -0.0851389 0.0390611)
(0.226135 -0.0845634 0.0392303)
(0.245547 -0.070627 0.0443352)
(0.27334 0.0260213 0.0516665)
(0.274683 0.0167654 0.0518901)
(0.27499 0.0156993 0.0521121)
(0.250374 -0.0661923 0.0454783)
(0.269968 -0.0372147 0.0506984)
(0.229464 -0.0823113 0.0405504)
(0.274386 -0.0202661 0.0519327)
(0.272821 -0.0285906 0.051691)
(0.250725 -0.0659513 0.0458899)
(0.265684 -0.046608 0.0496301)
(0.22632 -0.0842785 0.0397478)
(0.245974 -0.0702451 0.0448277)
(0.247274 -0.0690765 0.0446756)
(0.271458 -0.0329128 0.0511005)
(0.235186 0.0785769 0.0415623)
(0.226815 0.0841371 0.0394071)
(0.270813 -0.034918 0.050939)
(0.120359 0.134567 0.0106808)
(0.252995 0.0636711 0.0465909)
(0.223029 -0.0864627 0.0385588)
(0.274502 0.0202504 0.0521703)
(0.275145 0.0152064 0.0523512)
(0.265369 -0.0472789 0.0497335)
(0.241113 -0.0737062 0.0440584)
(0.242928 -0.0728152 0.0438446)
(0.247222 -0.0691975 0.0449326)
(0.22294 -0.0865261 0.0384046)
(0.26122 -0.053794 0.0486501)
(0.266911 -0.0443843 0.0500585)
(0.275806 -0.00125956 0.0524422)
(0.275803 -0.00203514 0.0524466)
(0.251999 0.0646828 0.0463562)
(0.247416 -0.0688813 0.0453693)
(0.275563 -0.00952742 0.0523744)
(0.263656 -0.0501433 0.0492523)
(0.235444 0.0783812 0.041992)
(0.257279 -0.0589067 0.0476965)
(0.2747 -0.0188954 0.0522286)
(0.275571 -0.00998953 0.0526227)
(0.275639 0.0088032 0.0525926)
(0.274377 0.0207602 0.0525677)
(0.27504 0.0157073 0.0527656)
(0.272581 -0.0293935 0.0520483)
(0.271502 -0.0331125 0.0517503)
(0.255368 -0.0611186 0.0471965)
(0.272562 0.029625 0.051752)
(0.273647 -0.025037 0.0519738)
(0.265618 -0.0467276 0.0501872)
(0.275845 -0.000678747 0.0526923)
(0.267551 -0.0430947 0.0502254)
(0.27102 -0.0346353 0.0511528)
(0.273495 -0.0257468 0.0520692)
(0.275784 -0.00348502 0.0524439)
(0.266205 0.045749 0.049902)
(0.274568 -0.0197918 0.05245)
(0.272389 -0.0302482 0.0517864)
(0.267286 0.0436549 0.0504855)
(0.27584 -0.00163593 0.0526989)
(0.267133 -0.0439531 0.0504647)
(0.261448 -0.0533454 0.0490971)
(0.273318 0.0265036 0.0518156)
(0.268532 0.0409769 0.0504753)
(0.275795 -0.00275359 0.0524452)
(0.273399 0.0258699 0.0523385)
(0.271103 -0.0337717 0.0519121)
(0.273763 -0.0244221 0.0522408)
(0.274251 0.0217642 0.0523914)
(0.273332 0.0250731 0.0526103)
(0.266493 0.0447983 0.0506361)
(0.148262 -0.122563 0.0186702)
(0.274105 -0.0212025 0.0527725)
(0.255581 -0.0606598 0.047624)
(0.275143 -0.0152168 0.0523496)
(0.2711 -0.0343307 0.051651)
(0.274847 0.0173083 0.0527309)
(0.275822 -0.00312226 0.0527019)
(0.272464 -0.0286954 0.0523974)
(0.268776 -0.0401412 0.0511782)
(0.275794 0.0021302 0.0529421)
(0.274112 -0.0222744 0.0525209)
(0.27104 0.0345194 0.0516243)
(0.275013 0.0128287 0.0531291)
(0.272922 0.0277683 0.0522738)
(0.275772 -0.00124737 0.0530035)
(0.273197 -0.0264246 0.0524035)
(0.273216 0.026987 0.0520238)
(0.273656 -0.0237568 0.0526421)
(0.27567 0.00728867 0.0528926)
(0.224056 0.0858234 0.0388907)
(0.275616 -0.00273653 0.0531591)
(0.27299 0.0263535 0.052574)
(0.272775 0.027438 0.0524828)
(0.264469 -0.0486341 0.0499553)
(0.274612 -0.0193176 0.0521128)
(0.274653 -0.0192228 0.0524464)
(0.119502 -0.307003 0.0105863)
(6.76635e-05 -0.323331 0.000320969)
(0.119521 0.304237 0.0102974)
(0.0187865 -0.303651 -0.00853646)
(0.0174935 -0.304096 -0.00834899)
(0.0162135 -0.30458 -0.00814529)
(0.0149508 -0.305102 -0.00793077)
(0.0137123 -0.305663 -0.00770047)
(0.0124981 -0.306266 -0.00744897)
(0.0113069 -0.306912 -0.00718062)
(0.0101451 -0.3076 -0.00689861)
(0.00793114 -0.309108 -0.00627401)
(0.00688532 -0.309931 -0.00592937)
(0.00588747 -0.3108 -0.00556387)
(0.00494227 -0.311717 -0.00517668)
(0.000124285 -0.320568 -0.0014116)
(0.0336546 -0.300512 -0.00879148)
(0.0179925 -0.303601 -0.0079875)
(0.0154282 -0.304599 -0.00759678)
(0.0129475 -0.305752 -0.00713963)
(0.0105651 -0.307066 -0.00659564)
(0.00723425 -0.309387 -0.00564245)
(0.00525536 -0.311166 -0.00491317)
(0.0118994 -0.306584 -0.00731674)
(0.00847011 -0.308713 -0.00643857)
(0.016702 -0.304083 -0.00780055)
(0.0141766 -0.305156 -0.00738074)
(0.00942387 -0.307786 -0.00630142)
(0.00621981 -0.310252 -0.00528889)
(-3.77693e-05 -0.322786 -0.000380297)
(0.0199942 0.30293 -0.00822491)
(0.0186796 0.303357 -0.00807472)
(0.0160956 0.304322 -0.00770455)
(0.0135881 0.305434 -0.00726852)
(0.00675811 0.309781 -0.00548037)
(0.00228763 0.314902 -0.00343751)
(0.0192355 0.303506 -0.00859601)
(0.0166182 0.304422 -0.00821123)
(0.0140685 0.305496 -0.00776929)
(0.0179197 0.303943 -0.00840976)
(0.0128304 0.306095 -0.00751952)
(0.118953 0.134909 0.0105589)
(0.119262 0.134584 0.0101929)
(0.119543 -0.134907 0.0104587)
(0.273934 -0.0194661 0.0515182)
(0.227404 0.083543 0.0391685)
(0.12214 -0.133822 0.0111628)
(0.125696 -0.132328 0.0121211)
(0.126585 -0.131955 0.0123604)
(0.155586 -0.119605 0.0201365)
(0.156449 -0.11923 0.020367)
(0.18726 -0.105256 0.0285656)
(0.158167 0.118478 0.0208224)
(0.152985 0.12073 0.0194385)
(0.142505 0.125225 0.0166338)
(0.200166 -0.0990312 0.0323206)
(0.149649 -0.122191 0.0185757)
(0.223811 -0.0859994 0.0387056)
(0.267241 -0.0431787 0.0498583)
(0.236324 0.0777708 0.0418584)
(0.264183 -0.0489117 0.0490647)
(0.268485 0.040438 0.0501841)
(0.228054 0.0833493 0.0397188)
(0.229241 -0.0825875 0.0400375)
(0.275514 0.000588009 0.052104)
(0.258398 -0.0575164 0.0477889)
(0.257582 -0.0583521 0.047349)
(0.274819 -0.0158431 0.0519454)
(0.224267 0.0857193 0.0387487)
(0.252409 0.0641477 0.0459938)
(0.221631 0.0873104 0.0380586)
(0.226844 0.0839436 0.0398968)
(0.27435 0.0211661 0.052097)
(0.273742 0.0245849 0.0520723)
(0.275028 0.0162125 0.0522811)
(0.268799 -0.0403915 0.0505763)
(0.275806 0.00173461 0.052449)
(0.275688 0.00773942 0.0525424)
(0.266034 -0.0460841 0.0499581)
(0.251761 0.0642067 0.0469831)
(0.274281 -0.021673 0.0522076)
(0.270559 -0.0360169 0.0511971)
(0.275842 0.00132701 0.0526911)
(0.268555 -0.0409695 0.0507843)
(0.154553 -0.119948 0.0202916)
(0.270827 0.0352606 0.0513155)
(0.264441 -0.0488613 0.0494503)
(0.257026 -0.0587088 0.0482143)
(0.274525 0.0163144 0.0531143)
(0.273854 0.0213584 0.0529022)
(0.275583 0.00928277 0.0528423)
(0.266275 0.0455864 0.0502831)
(0.267414 -0.0432448 0.0507143)
(0.268612 0.0407772 0.0509364)
(0.274844 -0.0158943 0.0529606)
(0.275588 0.00172261 0.0531931)
(0.267935 -0.0407193 0.0514415)
(0.275639 0.00822141 0.0528505)
(0.275813 0.00075923 0.052919)
(0.274452 -0.0192447 0.0528184)
(0.26405 -0.0490522 0.0500239)
(0.275035 0.00115484 0.0534837)
(0.27532 0.00769618 0.0532288)
(0.0132853 -0.305835 -0.00830111)
(0.0108705 -0.307104 -0.00776978)
(0.00747863 -0.309337 -0.0068353)
(0.00542637 -0.31106 -0.00610172)
(-0.000261842 -0.321046 -0.00175938)
(0.0130142 0.305967 -0.00824583)
(0.00616894 -0.309543 -0.00502548)
(9.26823e-05 -0.320523 -0.000823761)
(-7.21377e-06 -0.322536 -0.000213106)
(0.119521 -0.304232 0.0102971)
(0.0135585 -0.305449 -0.00726367)
(0.0111502 -0.306722 -0.0067374)
(0.00776104 -0.308972 -0.00581414)
(0.00573119 -0.310703 -0.00510445)
(0.00638001 -0.310359 -0.0057493)
(0.120543 -0.307942 0.0103651)
(0.119438 -0.305402 0.00964449)
(0.0129754 0.305738 -0.00714598)
(0.119832 0.308454 0.0108239)
(0.230411 -0.0815929 0.039964)
(0.229809 -0.08199 0.0398057)
(0.184887 -0.106389 0.0279442)
(0.184081 -0.106769 0.0277282)
(0.198953 -0.0995195 0.0316696)
(0.198191 -0.0999025 0.0314658)
(0.227361 -0.0835741 0.0391601)
(0.224213 -0.0855473 0.0383321)
(0.223571 -0.0859408 0.0381631)
(0.246527 -0.069374 0.0441997)
(0.246005 -0.069832 0.0440603)
(0.226111 -0.0843638 0.0388301)
(0.225479 -0.0847575 0.0386615)
(0.120708 -0.134441 0.0108505)
(0.221969 -0.0871075 0.0382223)
(0.221384 -0.0874301 0.0378617)
(0.224633 -0.0854629 0.0387072)
(0.121642 -0.133963 0.0111991)
(0.220967 -0.0875115 0.037477)
(0.220307 -0.0879034 0.037303)
(0.123029 -0.133448 0.0114025)
(0.123918 -0.133075 0.0116422)
(0.124807 -0.132702 0.0118817)
(0.128362 -0.131208 0.0128386)
(0.129249 -0.130834 0.0130774)
(0.130137 -0.130461 0.0133161)
(0.131024 -0.130087 0.0135547)
(0.131911 -0.129713 0.0137931)
(0.132797 -0.12934 0.0140313)
(0.133683 -0.128966 0.0142693)
(0.135453 -0.128219 0.0147447)
(0.136337 -0.127845 0.0149821)
(0.137221 -0.127471 0.0152193)
(0.138104 -0.127097 0.0154563)
(0.138986 -0.126723 0.015693)
(0.139867 -0.126349 0.0159295)
(0.140748 -0.125975 0.0161657)
(0.141629 -0.125601 0.0164017)
(0.142508 -0.125226 0.0166374)
(0.143387 -0.124852 0.0168728)
(0.144264 -0.124478 0.017108)
(0.145141 -0.124104 0.0173429)
(0.146017 -0.123729 0.0175775)
(0.147766 -0.12298 0.0180457)
(0.14864 -0.122605 0.0182794)
(0.151253 -0.121481 0.0189784)
(0.152122 -0.121106 0.0192107)
(0.15299 -0.120731 0.0194427)
(0.153856 -0.120356 0.0196744)
(0.154722 -0.11998 0.0199056)
(0.157311 -0.118854 0.0205971)
(0.158171 -0.118479 0.0208268)
(0.15903 -0.118103 0.0210562)
(0.159888 -0.117727 0.0212851)
(0.160745 -0.117352 0.0215136)
(0.1616 -0.116976 0.0217417)
(0.162453 -0.116599 0.0219693)
(0.163306 -0.116223 0.0221966)
(0.164156 -0.115847 0.0224234)
(0.165005 -0.11547 0.0226497)
(0.165853 -0.115094 0.0228756)
(0.166699 -0.114717 0.023101)
(0.167544 -0.114341 0.0233259)
(0.168387 -0.113964 0.0235504)
(0.169228 -0.113587 0.0237744)
(0.170067 -0.11321 0.0239979)
(0.170905 -0.112832 0.0242209)
(0.171741 -0.112455 0.0244434)
(0.172576 -0.112077 0.0246654)
(0.173408 -0.1117 0.0248868)
(0.174239 -0.111322 0.0251078)
(0.175068 -0.110944 0.0253282)
(0.175895 -0.110566 0.0255481)
(0.17672 -0.110188 0.0257674)
(0.177543 -0.109809 0.0259862)
(0.178364 -0.10943 0.0262044)
(0.179184 -0.109052 0.026422)
(0.180001 -0.108673 0.0266391)
(0.180816 -0.108294 0.0268556)
(0.181629 -0.107915 0.0270715)
(0.18244 -0.107535 0.0272868)
(0.183249 -0.107156 0.0275015)
(0.189639 -0.104113 0.0291964)
(0.188848 -0.104494 0.0289868)
(0.190427 -0.103732 0.0294054)
(0.191213 -0.103351 0.0296136)
(0.191996 -0.102969 0.0298212)
(0.192777 -0.102587 0.0300281)
(0.193555 -0.102206 0.0302343)
(0.194331 -0.101823 0.0304398)
(0.195104 -0.101441 0.0306445)
(0.195875 -0.101058 0.0308486)
(0.196643 -0.100676 0.0310519)
(0.197408 -0.100292 0.0312545)
(0.201942 -0.0979896 0.032454)
(0.201194 -0.098374 0.032256)
(0.202688 -0.097605 0.0326513)
(0.203431 -0.0972202 0.0328477)
(0.204171 -0.096835 0.0330433)
(0.204908 -0.0964497 0.0332381)
(0.205642 -0.0960641 0.0334321)
(0.206372 -0.0956782 0.0336252)
(0.2071 -0.0952921 0.0338175)
(0.207825 -0.0949058 0.034009)
(0.208547 -0.0945191 0.0341997)
(0.209265 -0.0941322 0.0343894)
(0.20998 -0.0937451 0.0345783)
(0.210692 -0.0933576 0.0347664)
(0.211401 -0.0929699 0.0349535)
(0.212107 -0.0925819 0.0351398)
(0.212809 -0.0921937 0.0353252)
(0.213508 -0.0918051 0.0355096)
(0.214203 -0.0914163 0.0356932)
(0.214896 -0.0910272 0.0358758)
(0.215584 -0.0906378 0.0360575)
(0.21627 -0.0902481 0.0362383)
(0.216951 -0.089858 0.0364182)
(0.21763 -0.0894677 0.036597)
(0.218304 -0.0890771 0.036775)
(0.218976 -0.0886862 0.036952)
(0.219643 -0.088295 0.037128)
(0.218971 0.0886848 0.0369467)
(0.219639 0.0882935 0.0371227)
(0.2183 0.0890757 0.0367697)
(0.217625 0.0894664 0.0365918)
(0.216947 0.0898567 0.0364129)
(0.216265 0.0902467 0.036233)
(0.21558 0.0906365 0.0360523)
(0.214891 0.0910259 0.0358705)
(0.214199 0.0914151 0.0356879)
(0.213503 0.0918039 0.0355043)
(0.212804 0.0921925 0.0353199)
(0.212102 0.0925808 0.0351345)
(0.211396 0.0929688 0.0349482)
(0.210688 0.0933565 0.0347611)
(0.209976 0.093744 0.034573)
(0.20926 0.0941312 0.0343841)
(0.208542 0.0945181 0.0341943)
(0.20782 0.0949048 0.0340037)
(0.207096 0.0952911 0.0338122)
(0.206368 0.0956773 0.0336199)
(0.205637 0.0960631 0.0334267)
(0.204903 0.0964488 0.0332328)
(0.204166 0.0968341 0.033038)
(0.203426 0.0972193 0.0328423)
(0.202683 0.0976041 0.0326459)
(0.201937 0.0979888 0.0324487)
(0.201189 0.0983732 0.0322507)
(0.200437 0.0987573 0.0320519)
(0.199683 0.0991413 0.0318524)
(0.198926 0.099525 0.0316521)
(0.198166 0.0999085 0.031451)
(0.197403 0.100292 0.0312492)
(0.196638 0.100675 0.0310466)
(0.19587 0.101058 0.0308433)
(0.1951 0.10144 0.0306392)
(0.194326 0.101823 0.0304345)
(0.193551 0.102205 0.030229)
(0.192772 0.102587 0.0300228)
(0.191991 0.102968 0.0298159)
(0.190422 0.103731 0.0294001)
(0.190989 0.103476 0.0295772)
(0.189634 0.104112 0.0291912)
(0.188843 0.104493 0.0289816)
(0.18805 0.104874 0.0287713)
(0.187255 0.105255 0.0285604)
(0.186457 0.105635 0.0283488)
(0.185657 0.106016 0.0281366)
(0.184855 0.106396 0.0279238)
(0.18405 0.106775 0.0277104)
(0.183244 0.107155 0.0274963)
(0.182435 0.107535 0.0272816)
(0.181624 0.107914 0.0270663)
(0.180811 0.108293 0.0268504)
(0.179996 0.108672 0.026634)
(0.179179 0.109051 0.0264169)
(0.178359 0.10943 0.0261993)
(0.177538 0.109808 0.0259811)
(0.176715 0.110187 0.0257623)
(0.17589 0.110565 0.025543)
(0.175063 0.110943 0.0253232)
(0.174234 0.111321 0.0251028)
(0.173403 0.111699 0.0248819)
(0.172571 0.112077 0.0246604)
(0.171736 0.112454 0.0244384)
(0.1709 0.112832 0.024216)
(0.170063 0.113209 0.023993)
(0.169223 0.113586 0.0237695)
(0.168382 0.113963 0.0235456)
(0.167539 0.11434 0.0233211)
(0.166694 0.114717 0.0230962)
(0.165848 0.115093 0.0228708)
(0.165001 0.11547 0.022645)
(0.164152 0.115846 0.0224187)
(0.163301 0.116223 0.0221919)
(0.162449 0.116599 0.0219647)
(0.161595 0.116975 0.0217371)
(0.16074 0.117351 0.021509)
(0.159875 0.117733 0.0212813)
(0.159011 0.118115 0.0210549)
(0.157306 0.118854 0.0205927)
(0.156445 0.119229 0.0203626)
(0.155582 0.119604 0.0201322)
(0.154717 0.11998 0.0199013)
(0.152118 0.121105 0.0192066)
(0.151249 0.12148 0.0189743)
(0.150379 0.121855 0.0187417)
(0.149508 0.12223 0.0185087)
(0.148636 0.122604 0.0182754)
(0.147763 0.122979 0.0180418)
(0.146889 0.123354 0.0178079)
(0.146014 0.123728 0.0175737)
(0.145138 0.124103 0.0173391)
(0.143383 0.124851 0.0168692)
(0.141625 0.1256 0.0163981)
(0.140745 0.125974 0.0161622)
(0.139826 0.126373 0.0159259)
(0.138101 0.127096 0.0154529)
(0.137218 0.12747 0.015216)
(0.136334 0.127844 0.0149789)
(0.13545 0.128218 0.0147415)
(0.134565 0.128591 0.014504)
(0.13368 0.128965 0.0142662)
(0.132794 0.129339 0.0140283)
(0.131908 0.129712 0.0137901)
(0.131022 0.130086 0.0135518)
(0.130134 0.13046 0.0133133)
(0.129247 0.130833 0.0130746)
(0.128359 0.131207 0.0128358)
(0.127471 0.13158 0.0125969)
(0.126583 0.131954 0.0123577)
(0.123027 0.133447 0.0114001)
(0.122138 0.133821 0.0111604)
(0.121248 0.134194 0.0109206)
(0.223595 -0.0855758 0.0394106)
(0.220531 -0.0879563 0.0378624)
(0.200921 -0.0986167 0.0326573)
(0.184284 -0.106365 0.0286584)
(0.242763 -0.0728224 0.0433945)
(0.242111 -0.0734366 0.0434027)
(0.266928 -0.0438204 0.0497752)
(0.19886 -0.0995057 0.0323531)
(0.198074 -0.0999108 0.0321273)
(0.263798 -0.0495576 0.0489655)
(0.185998 -0.105652 0.0290195)
(0.243779 0.0720772 0.0437897)
(0.244417 0.0715392 0.0439335)
(0.243129 0.0726146 0.0436428)
(0.219641 0.088484 0.0375362)
(0.220309 0.0880926 0.0377141)
(0.222947 0.0865209 0.0383975)
(0.223619 0.086114 0.0385787)
(0.17251 0.111878 0.0253566)
(0.173349 0.1115 0.0255833)
(0.174187 0.111122 0.0258094)
(0.175023 0.110744 0.0260349)
(0.175857 0.110366 0.0262598)
(0.176689 0.109988 0.0264841)
(0.177519 0.109609 0.0267078)
(0.178348 0.109231 0.0269308)
(0.179174 0.108852 0.0271533)
(0.179999 0.108473 0.0273751)
(0.180821 0.108094 0.0275963)
(0.181642 0.107714 0.0278168)
(0.18246 0.107335 0.0280367)
(0.183276 0.106955 0.028256)
(0.18409 0.106575 0.0284745)
(0.184902 0.106196 0.0286924)
(0.185712 0.105815 0.0289097)
(0.186519 0.105435 0.0291262)
(0.187325 0.105055 0.0293421)
(0.188127 0.104674 0.0295573)
(0.188928 0.104293 0.0297717)
(0.191721 0.103134 0.0302782)
(0.192509 0.102752 0.0304888)
(0.193294 0.10237 0.0306987)
(0.194077 0.101988 0.0309079)
(0.194857 0.101606 0.0311163)
(0.195634 0.101223 0.0313239)
(0.196409 0.10084 0.0315309)
(0.197181 0.100457 0.0317371)
(0.197951 0.100074 0.0319425)
(0.198717 0.0996908 0.0321471)
(0.199481 0.0993072 0.032351)
(0.200242 0.0989234 0.0325541)
(0.201 0.0985393 0.0327564)
(0.201756 0.098155 0.0329579)
(0.202508 0.0977704 0.0331586)
(0.203258 0.0973856 0.0333585)
(0.204004 0.0970006 0.0335576)
(0.204747 0.0966153 0.0337559)
(0.205488 0.0962298 0.0339533)
(0.206225 0.095844 0.0341499)
(0.20696 0.0954579 0.0343457)
(0.207691 0.0950716 0.0345406)
(0.208419 0.0946851 0.0347346)
(0.209144 0.0942983 0.0349278)
(0.209865 0.0939111 0.0351201)
(0.210584 0.0935238 0.0353116)
(0.211299 0.0931361 0.0355021)
(0.212011 0.0927482 0.0356918)
(0.212719 0.09236 0.0358805)
(0.213424 0.0919715 0.0360684)
(0.214126 0.0915828 0.0362553)
(0.214825 0.0911937 0.0364413)
(0.21552 0.0908044 0.0366264)
(0.241373 0.0739986 0.0431549)
(0.241938 0.0735553 0.0433034)
(0.220092 -0.0882193 0.0377061)
(0.219645 -0.0884822 0.0375494)
(0.12125 -0.134195 0.0109229)
(0.216211 0.0904147 0.0368106)
(0.197311 -0.100294 0.0319196)
(0.196536 -0.100683 0.0317048)
(0.195761 -0.101066 0.0314977)
(0.194983 -0.101449 0.0312898)
(0.194202 -0.101831 0.0310812)
(0.193418 -0.102213 0.0308718)
(0.192632 -0.102595 0.0306617)
(0.191843 -0.102977 0.0304508)
(0.191052 -0.103359 0.0302392)
(0.190258 -0.10374 0.0300269)
(0.189784 -0.104008 0.0298465)
(0.189297 -0.104276 0.0296665)
(0.216899 0.0900247 0.0369938)
(0.217584 0.0896345 0.0371761)
(0.220972 0.0877015 0.0378929)
(0.257589 0.0583199 0.0473346)
(0.258036 0.0577714 0.0474547)
(0.258477 0.0572067 0.0475651)
(0.258914 0.0566507 0.0476827)
(0.259343 0.0560808 0.0477902)
(0.25977 0.0555172 0.0479052)
(0.218265 0.0892439 0.0373574)
(0.218977 0.0888641 0.0374473)
(0.190583 0.103586 0.0301114)
(0.189347 0.104038 0.0299464)
(0.244786 -0.0712903 0.0442549)
(0.222559 -0.0867414 0.0382247)
(0.244048 -0.0718855 0.0442544)
(0.236894 0.0773607 0.0420043)
(0.23746 0.0769503 0.0421488)
(0.274382 -0.0193913 0.0518302)
(0.274833 0.0172548 0.0520928)
(0.275493 -0.00016794 0.0520876)
(0.272636 -0.0290436 0.0514953)
(0.249351 -0.0671703 0.0452127)
(0.248689 -0.0678751 0.0453669)
(0.25884 -0.05696 0.0479068)
(0.228626 -0.082984 0.0398771)
(0.228008 -0.0833802 0.0397155)
(0.231651 -0.0810012 0.0406608)
(0.231052 -0.0813989 0.0405019)
(0.232243 -0.0806036 0.040814)
(0.232832 -0.0802056 0.0409659)
(0.233416 -0.0798071 0.0411168)
(0.233996 -0.0794082 0.0412665)
(0.234573 -0.0790083 0.0414153)
(0.235145 -0.0786081 0.0415629)
(0.235717 -0.0782046 0.0417105)
(0.236285 -0.0778008 0.0418567)
(0.236854 -0.0773924 0.0420033)
(0.237418 -0.0769836 0.0421487)
(0.237984 -0.0765697 0.0422944)
(0.238545 -0.0761554 0.0424388)
(0.239108 -0.0757357 0.0425837)
(0.239666 -0.0753157 0.0427272)
(0.241333 -0.0740336 0.0431559)
(0.240781 -0.074461 0.0430098)
(0.240226 -0.0748886 0.0428692)
(0.247797 -0.0686073 0.0448131)
(0.249866 -0.0666815 0.0453464)
(0.252372 -0.064194 0.0459931)
(0.251877 -0.064697 0.0458618)
(0.252864 -0.0636832 0.04612)
(0.25335 -0.0631719 0.0462451)
(0.253834 -0.0626534 0.0463703)
(0.254311 -0.0621343 0.0464934)
(0.254788 -0.061608 0.0466166)
(0.255257 -0.0610811 0.0467378)
(0.256607 -0.05954 0.0471046)
(0.256175 -0.0600397 0.0469857)
(0.25572 -0.0605607 0.0468627)
(0.257138 -0.0589059 0.0472434)
(0.258017 -0.0577977 0.0474522)
(0.261834 -0.0526081 0.0484455)
(0.261428 -0.0532104 0.048343)
(0.262231 -0.0520053 0.0485457)
(0.188498 -0.104656 0.029453)
(0.270342 -0.0357292 0.0506838)
(0.26986 -0.0358441 0.050379)
(0.274736 -0.0166518 0.0519278)
(0.242537 0.0730852 0.043474)
(0.232283 0.0805748 0.0408158)
(0.232874 0.0801756 0.0409716)
(0.245192 0.070888 0.0441359)
(0.245726 0.0704312 0.044273)
(0.253386 0.0631245 0.046246)
(0.253869 0.0626099 0.0463742)
(0.2529 0.0636406 0.046124)
(0.251417 0.0651555 0.0457379)
(0.251916 0.0646559 0.0458701)
(0.250412 0.0661481 0.0454787)
(0.250917 0.0656559 0.0456126)
(0.249393 0.0671256 0.0452161)
(0.249905 0.0666407 0.0453518)
(0.24836 0.0680883 0.0449503)
(0.248879 0.0676106 0.0450877)
(0.247316 0.0690363 0.0446815)
(0.247841 0.0685658 0.0448205)
(0.246264 0.0699682 0.0444152)
(0.246793 0.0695025 0.0445493)
(0.22491 0.0853235 0.0389113)
(0.225549 0.0849273 0.0390726)
(0.234613 0.0789775 0.0414147)
(0.234037 0.0793777 0.0412659)
(0.233457 0.0797768 0.0411194)
(0.240821 0.0744279 0.0430132)
(0.240264 0.0748567 0.0428699)
(0.238585 0.0761221 0.0424382)
(0.239151 0.075701 0.0425881)
(0.23971 0.0752791 0.0427297)
(0.238025 0.0765364 0.0422942)
(0.231691 0.080972 0.0406615)
(0.231095 0.0813688 0.040506)
(0.230495 0.0817657 0.0403508)
(0.229891 0.0821622 0.0401944)
(0.228672 0.0829534 0.0398832)
(0.229283 0.082558 0.0400394)
(0.226184 0.0845323 0.0392404)
(0.216941 -0.0900413 0.0368474)
(0.216256 -0.0904303 0.0366695)
(0.218974 -0.0888724 0.0373754)
(0.2183 -0.0892624 0.0372004)
(0.217622 -0.089652 0.0370244)
(0.215567 -0.0908191 0.0364906)
(0.214875 -0.0912075 0.0363107)
(0.214179 -0.0915957 0.0361299)
(0.213479 -0.0919836 0.0359481)
(0.212776 -0.0923712 0.0357654)
(0.212069 -0.0927586 0.0355818)
(0.211358 -0.0931457 0.0353972)
(0.210644 -0.0935325 0.0352117)
(0.209927 -0.0939191 0.0350253)
(0.209206 -0.0943054 0.0348379)
(0.251229 -0.0654593 0.046051)
(0.222284 0.0869191 0.0382233)
(0.255291 0.0610358 0.0467403)
(0.255761 0.0604977 0.046861)
(0.208482 -0.0946915 0.0346497)
(0.207754 -0.0950774 0.0344606)
(0.201808 -0.098156 0.0329158)
(0.200291 -0.0984632 0.0317471)
(0.207022 -0.095463 0.0342706)
(0.206287 -0.0958484 0.0340796)
(0.205549 -0.0962335 0.0338878)
(0.204808 -0.0966184 0.0336952)
(0.204063 -0.0970031 0.0335016)
(0.203314 -0.0973876 0.0333072)
(0.202563 -0.0977719 0.0331119)
(0.254352 0.0620881 0.0465024)
(0.256222 0.059963 0.0469813)
(0.256676 0.0594278 0.0470997)
(0.119393 0.13476 0.010665)
(0.257134 0.0588782 0.0472181)
(0.269849 -0.0378572 0.0508621)
(0.274321 0.0207083 0.0519188)
(0.274009 0.0216451 0.0517138)
(0.120361 -0.134568 0.010683)
(0.272506 -0.0297358 0.0515503)
(0.248184 -0.0683351 0.0451967)
(0.2579 -0.0581539 0.0478724)
(0.227429 -0.0837466 0.0395538)
(0.27575 -0.00519308 0.0524443)
(0.275721 -0.0060814 0.0524288)
(0.275775 -0.00430466 0.0524583)
(0.271397 -0.0335332 0.0512896)
(0.243196 -0.0723488 0.0434002)
(0.246682 -0.0696731 0.0448694)
(0.24463 -0.0707508 0.0450863)
(0.242216 -0.0732269 0.0439906)
(0.243344 -0.0723941 0.0441989)
(0.230454 -0.0817952 0.0403514)
(0.271743 -0.0323282 0.0513017)
(0.270289 -0.0366561 0.0509288)
(0.269611 -0.0384024 0.0507383)
(0.269354 -0.0389473 0.0506095)
(0.250042 -0.0665237 0.0459942)
(0.275207 0.0144933 0.0523315)
(0.275261 0.01378 0.0523092)
(0.186529 -0.105703 0.0286929)
(0.275797 0.00243873 0.0524423)
(0.27439 -0.0208949 0.0520938)
(0.275408 0.0121913 0.0523889)
(0.275439 0.0113526 0.0523244)
(0.275353 0.0130297 0.0524469)
(0.272817 0.028433 0.0515811)
(0.27301 0.027795 0.051712)
(0.273941 0.0235281 0.0520125)
(0.274095 0.0226703 0.052036)
(0.275689 0.00610866 0.0523661)
(0.275712 0.00538627 0.0523725)
(0.251489 0.0651904 0.0462275)
(0.253487 0.063157 0.0467225)
(0.250982 0.0656858 0.0461046)
(0.250468 0.0661808 0.0459799)
(0.248381 0.0681142 0.0454759)
(0.248914 0.0676297 0.0456088)
(0.247851 0.0685862 0.0453487)
(0.247315 0.0690577 0.0452198)
(0.254822 0.0615606 0.0466172)
(0.187981 -0.10493 0.0292726)
(0.266878 0.0444578 0.0500667)
(0.267215 0.0437961 0.05017)
(0.257287 0.0588969 0.0476459)
(0.25774 0.058349 0.0477689)
(0.2582 0.0577835 0.0478733)
(0.258644 0.057228 0.0479937)
(0.25909 0.0566585 0.048094)
(0.259525 0.0560955 0.0482119)
(0.275676 0.00672064 0.0523758)
(0.27566 0.00733255 0.0523846)
(0.259961 0.0555189 0.0483227)
(0.260784 -0.0544026 0.048538)
(0.266583 -0.0450197 0.0499711)
(0.272266 0.0305241 0.0514366)
(0.272453 0.0298434 0.0514881)
(0.249435 0.0671453 0.0457477)
(0.263264 -0.0507619 0.0491519)
(0.262864 -0.0513799 0.0490493)
(0.122156 -0.133798 0.0112961)
(0.122944 -0.133246 0.0116816)
(0.273582 0.0253188 0.0519081)
(0.260808 0.0543683 0.0485259)
(0.261225 0.0537866 0.048637)
(0.262457 0.051996 0.0489461)
(0.262856 0.0513931 0.0490514)
(0.251742 -0.0649508 0.0461885)
(0.275626 -0.00897252 0.0526704)
(0.275407 -0.0112051 0.0522532)
(0.275414 -0.0120298 0.0523723)
(0.272639 0.0291302 0.0515331)
(0.274794 -0.018168 0.0522326)
(0.270972 0.0347239 0.0510989)
(0.271195 0.0340663 0.0511638)
(0.269118 -0.039653 0.0506687)
(0.275512 -0.0103796 0.0523603)
(0.275602 0.0082176 0.0523378)
(0.275349 -0.0129119 0.0523706)
(0.274851 0.0177435 0.0522573)
(0.235914 0.0777421 0.0425089)
(0.236509 0.077332 0.0426553)
(0.275494 0.0106443 0.0523534)
(0.27569 -0.00697649 0.0524224)
(0.275205 -0.0138401 0.052207)
(0.275198 -0.0144863 0.0522994)
(0.273142 0.0273174 0.0518382)
(0.273284 -0.0265944 0.0517642)
(0.273135 -0.0272955 0.0517654)
(0.270675 -0.035602 0.0510379)
(0.222274 -0.0867261 0.0378193)
(0.221405 -0.0868357 0.0373463)
(0.274991 -0.0165203 0.0526134)
(0.274935 -0.0170955 0.0523062)
(0.2716 -0.0325279 0.0519289)
(0.274124 -0.0223236 0.0519589)
(0.236429 -0.0773597 0.0426619)
(0.235832 -0.0777652 0.0425202)
(0.237027 -0.0769496 0.0428036)
(0.237619 -0.0765392 0.042944)
(0.23939 -0.0752868 0.0433621)
(0.238814 -0.0757069 0.0432178)
(0.23822 -0.0761233 0.0430816)
(0.259749 -0.055549 0.0479016)
(0.259323 -0.0561172 0.047791)
(0.275804 0.000943 0.0524338)
(0.274959 0.0168194 0.0525869)
(0.252455 -0.0642203 0.046481)
(0.25195 -0.064729 0.0463554)
(0.252952 -0.0637111 0.0466047)
(0.253447 -0.0631967 0.0467253)
(0.253935 -0.0626818 0.046844)
(0.254893 -0.0616454 0.0470729)
(0.254418 -0.0621639 0.0469594)
(0.260369 -0.0549697 0.0484248)
(0.259948 -0.0555363 0.0483097)
(0.275669 -0.0076899 0.0524377)
(0.262461 -0.0519887 0.0489412)
(0.275785 0.00321557 0.0524363)
(0.199504 -0.098917 0.0328264)
(0.271087 -0.0340924 0.0510088)
(0.268482 -0.0411028 0.0504809)
(0.26817 -0.0417833 0.0503902)
(0.270265 -0.0359184 0.0517764)
(0.270222 -0.036627 0.0515284)
(0.25908 -0.0565626 0.0484468)
(0.258247 -0.0573805 0.0484307)
(0.272255 -0.0306824 0.0515108)
(0.272054 -0.031377 0.0514493)
(0.273808 0.0241575 0.0522983)
(0.275737 0.00466753 0.05239)
(0.275763 0.00394158 0.0524138)
(0.2571 -0.0580183 0.0485688)
(0.25677 -0.0595099 0.0475747)
(0.256294 -0.0600629 0.0474735)
(0.271647 0.0326544 0.0512846)
(0.271864 0.0319382 0.0513392)
(0.272068 0.0312314 0.0513889)
(0.270229 0.0368196 0.0509136)
(0.270485 0.0361222 0.0509794)
(0.2412 0.0739853 0.0437623)
(0.24178 0.0735157 0.0439364)
(0.264789 0.0482687 0.0495192)
(0.265141 0.047665 0.0496188)
(0.26549 0.0470529 0.0497171)
(0.265832 0.0464404 0.0498134)
(0.263247 0.0507897 0.0491547)
(0.272981 -0.0279432 0.051729)
(0.254946 0.0615885 0.0470602)
(0.255417 0.0610638 0.0471851)
(0.244347 0.0715542 0.0444955)
(0.245141 0.0708955 0.0447024)
(0.239465 0.0752636 0.0433477)
(0.240044 0.0748352 0.0434934)
(0.245687 0.070433 0.0448477)
(0.237099 0.0769184 0.0428027)
(0.267558 0.0431004 0.0502689)
(0.267921 0.042326 0.0503351)
(0.270731 -0.0353907 0.0515604)
(0.274436 -0.0204639 0.05255)
(0.254464 0.062116 0.0469412)
(0.249956 0.0666674 0.0458522)
(0.268233 0.0416393 0.0503961)
(0.15313 0.120696 0.0197129)
(0.237696 0.0765097 0.0429385)
(0.238286 0.0761007 0.0430732)
(0.275827 5.26026e-06 0.052873)
(0.270733 0.0354243 0.051043)
(0.269972 -0.0374633 0.0513385)
(0.261927 -0.0527836 0.0489409)
(0.264033 0.04953 0.0493288)
(0.264413 0.0489063 0.0494319)
(0.274628 0.0194326 0.0522412)
(0.274745 0.0186144 0.0523095)
(0.274005 -0.0229454 0.0519128)
(0.273881 -0.023567 0.0518653)
(0.242354 0.0730455 0.0441088)
(0.253979 0.0626368 0.0468328)
(0.25589 0.0605293 0.0473028)
(0.256356 0.0599943 0.0474186)
(0.263879 -0.0497054 0.0496985)
(0.264824 -0.0482148 0.0495496)
(0.267869 -0.0424298 0.0503102)
(0.26038 0.054955 0.048418)
(0.233948 0.0789746 0.0421128)
(0.243027 0.0725467 0.0442465)
(0.25682 0.0594514 0.0475332)
(0.263656 0.0501397 0.0492365)
(0.240625 0.074418 0.0436207)
(0.275538 0.00986224 0.0523576)
(0.271425 0.0333606 0.0512252)
(0.240551 -0.0744454 0.0436322)
(0.269959 0.0375283 0.050842)
(0.269682 0.0382365 0.0507681)
(0.275511 -0.0107677 0.0527344)
(0.275423 -0.0115458 0.0528475)
(0.268882 0.0402381 0.0507278)
(0.269106 0.0396428 0.0506161)
(0.264652 -0.0473255 0.0505055)
(0.27491 0.0150636 0.0530021)
(0.274269 0.0201308 0.0528231)
(0.262108 0.0525174 0.0488969)
(0.269394 0.0389511 0.050694)
(0.266597 0.0450218 0.0500575)
(0.269533 -0.0381176 0.0514779)
(0.24873 -0.0674747 0.0459287)
(0.275266 -0.0132902 0.0528475)
(0.275218 -0.0140954 0.0527758)
(0.275299 -0.0124848 0.0529189)
(0.239974 -0.0748663 0.0434978)
(0.26171 0.0530969 0.0487904)
(0.246761 0.0695173 0.0451171)
(0.271824 -0.0318266 0.0519753)
(0.27204 -0.0311249 0.0520198)
(0.269486 0.0387968 0.0509769)
(0.246228 0.0699754 0.0449833)
(0.238879 0.0756824 0.0432111)
(0.143095 0.124884 0.0171305)
(0.272734 0.0288835 0.0520238)
(0.272867 0.0282457 0.052147)
(0.275787 0.0028343 0.0529354)
(0.274609 -0.0178286 0.0528997)
(0.274588 -0.0185487 0.0528105)
(0.274606 -0.0171083 0.05299)
(0.266573 -0.0445688 0.0506962)
(0.139443 0.125804 0.0167004)
(0.1422 0.125258 0.0168919)
(0.142293 0.125202 0.0169355)
(0.260278 -0.0538894 0.049421)