/*--------------------------------*- C++ -*----------------------------------*\
| =========                 |                                                 |
| \\      /  F ield         | OpenFOAM: The Open Source CFD Toolbox           |
|  \\    /   O peration     | Version:  2412                                  |
|   \\  /    A nd           | Website:  www.openfoam.com                      |
|    \\/     M anipulation  |                                                 |
\*---------------------------------------------------------------------------*/
FoamFile
{
    version     2.0;
    format      ascii;
    arch        "LSB;label=32;scalar=64";
    class       extendedFeatureEdgeMesh;
    location    "constant/extendedFeatureEdgeMesh";
    object      hydro_assembly.extendedFeatureEdgeMesh;
}
// * * * * * * * * * * * * * * * * * * * * * * * * * * * * * * * * * * * * * //

// points

2825
(
(0.119343 -0.303511 0.0125434)
(0.119323 0.304238 0.0123818)
(0.119323 -0.304236 0.0123817)
(0.148741 -0.12269 0.0209895)
(0.152204 -0.121189 0.0219661)
(0.140886 0.126061 0.0187699)
(0.189937 -0.103988 0.0330239)
(0.199473 0.0992559 0.0356606)
(0.195684 0.101168 0.0346065)
(0.219344 -0.088341 0.0416504)
(0.262172 0.0511031 0.0535162)
(0.245307 -0.0702722 0.0489325)
(0.249177 -0.0667427 0.049816)
(0.258581 -0.0561734 0.0524085)
(0.262489 0.0506491 0.0539228)
(0.238285 -0.0759232 0.046891)
(0.239795 0.0746052 0.0477122)
(0.266478 0.0433644 0.0547071)
(0.234544 -0.0783739 0.0463158)
(0.25804 -0.0569689 0.052636)
(0.248728 -0.0671661 0.0499682)
(0.237431 0.0765581 0.0466658)
(0.235136 0.0782195 0.0460397)
(0.272654 -0.0252843 0.0568164)
(0.274019 -0.0164113 0.0569741)
(0.274666 -0.00830747 0.0571849)
(0.273265 -0.0218243 0.0567561)
(0.274833 0.00227833 0.0572286)
(0.242449 -0.0726676 0.0481416)
(0.238478 -0.075541 0.0474099)
(0.264167 -0.0478793 0.0542982)
(0.270541 0.0332674 0.0559731)
(0.274415 -0.0126899 0.0574507)
(0.261035 -0.052497 0.0539522)
(0.273178 -0.0225623 0.0568667)
(0.273758 -0.0185516 0.0569008)
(0.266706 -0.0430538 0.0549886)
(0.274597 0.0101073 0.0572408)
(0.274745 -0.0059915 0.0571862)
(0.272953 -0.0236675 0.0567035)
(0.268773 -0.038286 0.0554919)
(0.274723 0.00697428 0.0572019)
(0.27454 -0.0106242 0.0571522)
(0.269381 0.0366818 0.0556541)
(0.271316 -0.0306557 0.0561955)
(0.274632 0.00961996 0.0574312)
(0.273731 -0.0190597 0.057133)
(0.266851 -0.0426459 0.0553755)
(0.274255 -0.0146132 0.0572391)
(0.273843 -0.0182293 0.0570793)
(0.274123 -0.015862 0.0572778)
(0.26671 0.0430436 0.054978)
(0.274727 -0.00774355 0.0574579)
(0.274722 -0.00676162 0.0571842)
(0.274819 -0.00221584 0.0571999)
(0.274865 0.00284747 0.0574966)
(0.274807 -0.00562041 0.0574382)
(0.274851 -0.00385212 0.0574458)
(0.274886 0.000680148 0.0574398)
(0.264355 -0.0473906 0.0547262)
(0.274882 -0.00110654 0.0573709)
(0.271081 -0.0315725 0.0564217)
(0.264858 -0.0465969 0.054314)
(0.271858 -0.0286236 0.0563633)
(0.268234 -0.0396123 0.0553395)
(0.268952 -0.0378281 0.0558728)
(0.274412 0.0122796 0.0570922)
(0.274752 0.00618976 0.0572129)
(0.273434 0.0208864 0.0568402)
(0.274039 0.0165181 0.0570557)
(0.271909 0.0283771 0.0563566)
(0.274773 0.00660644 0.0574611)
(0.273359 0.0214927 0.0570528)
(0.272002 0.0281581 0.0566327)
(0.274628 -0.00909361 0.0571755)
(0.265501 0.0454512 0.054628)
(0.271665 -0.0294678 0.0565851)
(0.274681 -0.00872558 0.0574339)
(0.273582 -0.0198597 0.0573289)
(0.274117 0.0155328 0.0575213)
(0.273553 0.0202835 0.0570747)
(0.274483 0.0119495 0.0573399)
(0.264013 0.048143 0.0542927)
(0.274393 0.0102532 0.0578632)
(0.27485 0.000111734 0.0577194)
(0.267967 -0.0402582 0.0552842)
(0.274837 -0.00317933 0.057675)
(0.265436 -0.044976 0.0553013)
(0.274798 -0.00443551 0.0577165)
(0.265982 0.0440998 0.0553634)
(0.273577 0.0198206 0.0573605)
(0.274001 -0.0164905 0.0575135)
(0.274848 -0.000668533 0.0577243)
(0.274024 0.0140009 0.0578387)
(0.273334 0.0209852 0.0574175)
(0.274463 0.00796696 0.0579411)
(0.146398 0.123677 0.0204633)
(0.273623 -0.0185698 0.0575947)
(0.27487 -0.0014602 0.0575986)
(0.274755 -0.00638727 0.0576569)
(0.2738 0.0176231 0.0575751)
(0.274388 -0.0094335 0.0579189)
(0.274616 -0.00601621 0.0579006)
(0.273732 0.0162786 0.0578067)
(0.274632 -0.008337 0.0577388)
(0.274711 0.00719169 0.0576915)
(0.254669 0.0607691 0.0520686)
(0.27433 -0.0122517 0.0577477)
(0.273906 -0.0174833 0.0574205)
(0.271604 0.0295464 0.0567747)
(0.249035 -0.0666497 0.0504299)
(0.273013 0.0232765 0.0566902)
(0.147733 -0.122993 0.0209868)
(0.274233 0.0123846 0.057827)
(0.274227 -0.00873115 0.0580514)
(0.274848 -0.00232206 0.0576796)
(0.27471 -0.00194536 0.0579161)
(0.274663 -0.0010222 0.0579652)
(0.248887 -0.0669464 0.050199)
(0.119299 -0.307012 0.0126705)
(6.20515e-05 -0.323331 0.000322101)
(0.0163617 0.304197 -0.00742749)
(0.0138483 0.305352 -0.0070501)
(0.0126202 0.30598 -0.00682439)
(0.0114138 0.306638 -0.00657426)
(0.0102413 0.307332 -0.0063086)
(0.00909276 0.308081 -0.00602228)
(0.00798338 0.308879 -0.00571328)
(0.00692847 0.309717 -0.0053864)
(0.00592308 0.310604 -0.00504017)
(0.00497149 0.311541 -0.00467374)
(0.0011543 0.317214 -0.00255724)
(0.0170721 0.3043 -0.00808857)
(0.0145341 0.305341 -0.00760424)
(0.00129768 0.316954 -0.00292909)
(0.000807365 0.318124 -0.00243266)
(0.013274 0.30582 -0.00713634)
(0.012063 0.306451 -0.00689549)
(0.0108764 0.307121 -0.00663947)
(0.00972198 0.307833 -0.00636779)
(0.00859388 0.3086 -0.00607207)
(0.00751658 0.309406 -0.00575659)
(0.00648451 0.31026 -0.00542063)
(0.00550319 0.311162 -0.00506369)
(0.00457656 0.312113 -0.00468605)
(0.0157896 0.304795 -0.0078195)
(0.0294397 0.300867 -0.0085714)
(0.0301346 0.301048 -0.00894053)
(0.0308093 0.300664 -0.00855324)
(0.00167445 -0.316106 -0.00296221)
(0.00761354 -0.309164 -0.0056032)
(0.0086845 -0.308366 -0.0059131)
(0.00979546 -0.307615 -0.00620143)
(0.0109413 -0.30691 -0.00646972)
(0.0121182 -0.306249 -0.00672386)
(0.014609 -0.304992 -0.00717931)
(0.0158659 -0.304421 -0.00736579)
(0.0171269 -0.303885 -0.00753489)
(0.00704382 -0.309884 -0.00582532)
(0.00919775 -0.308287 -0.00645553)
(0.0115043 -0.306871 -0.00699826)
(0.0139284 -0.305619 -0.0074849)
(0.0164414 -0.30453 -0.00793146)
(0.00193293 -0.315729 -0.0033647)
(0.000481731 -0.319135 -0.00195236)
(0.0103338 -0.307557 -0.00673691)
(0.0127071 -0.306224 -0.00724878)
(0.0177254 -0.304045 -0.00815915)
(-7.95723e-05 -0.32299 -0.000454936)
(0.119346 0.135094 0.0124349)
(0.121099 0.134347 0.0129299)
(0.119346 -0.135094 0.0124349)
(0.121975 -0.133973 0.0131774)
(0.122851 -0.133599 0.0134248)
(0.119343 0.135185 0.0125434)
(0.118754 0.135116 0.0126336)
(0.119144 -0.135641 0.0123048)
(0.000294998 -0.319231 -0.00123496)
(0.119343 -0.135185 0.0125434)
(2.35977e-05 -0.319752 -0.00233985)
(0.118769 -0.135116 0.0126349)
(0.136493 -0.12793 0.0175352)
(0.147002 -0.123439 0.0204992)
(0.147872 -0.123065 0.0207445)
(0.149608 -0.122315 0.0212341)
(0.153067 -0.120814 0.0222094)
(0.15479 -0.120063 0.0226949)
(0.161624 -0.117055 0.0246218)
(0.162469 0.116679 0.0248568)
(0.159922 0.117808 0.0241385)
(0.156505 0.119312 0.0231749)
(0.154788 0.120063 0.0226908)
(0.14613 0.123814 0.0202492)
(0.134731 0.128678 0.0170328)
(0.121178 -0.134275 0.0132475)
(0.245867 -0.0695585 0.0485976)
(0.248997 -0.0666012 0.04946)
(0.257944 -0.0565057 0.051986)
(0.238013 0.0760062 0.046396)
(0.235768 0.0776764 0.0457707)
(0.194596 -0.101708 0.0343152)
(0.19415 0.10193 0.0341801)
(0.120213 -0.134464 0.0130831)
(0.274184 0.0111504 0.0567735)
(0.271541 -0.0287454 0.0560092)
(0.267928 -0.0397405 0.0549772)
(0.265582 0.0448859 0.0543271)
(0.239657 0.074884 0.0472451)
(0.274424 -0.00712742 0.0568581)
(0.23432 -0.0787929 0.0458299)
(0.270979 -0.0308543 0.0558443)
(0.264645 -0.0466772 0.0540651)
(0.273916 -0.0151428 0.0567294)
(0.261176 -0.0526636 0.0533296)
(0.272595 -0.0242832 0.0563504)
(0.273644 -0.0193791 0.0568687)
(0.24779 -0.067193 0.0505386)
(0.258206 -0.0566369 0.0529403)
(0.272827 0.0227309 0.0563861)
(0.23738 0.0762852 0.0471705)
(0.234836 0.07796 0.0465924)
(0.265614 -0.0452336 0.054652)
(0.157987 0.118456 0.0240533)
(0.159004 0.118116 0.0242373)
(0.245699 -0.0693872 0.049737)
(0.273217 -0.0222658 0.0571184)
(0.274349 0.0135787 0.0573192)
(0.270623 0.0330949 0.0562475)
(0.272479 -0.0259814 0.0569715)
(0.274 -0.0169816 0.0571455)
(0.265937 0.0445712 0.0550015)
(0.274736 0.00755949 0.0574477)
(0.274497 0.0111165 0.0576367)
(0.269452 0.0365297 0.0559322)
(0.274606 -0.0100652 0.0574294)
(0.265398 0.0451367 0.0552477)
(0.274016 -0.0153325 0.0577017)
(0.26803 -0.0398898 0.055829)
(0.272816 -0.0239085 0.0572695)
(0.274818 0.00324387 0.0577322)
(0.271223 -0.030887 0.0566987)
(0.192493 0.102306 0.0343333)
(0.264789 -0.0466143 0.05485)
(0.264626 -0.0455832 0.0554313)
(0.273445 -0.0195404 0.0575907)
(0.27472 -0.00705194 0.0576844)
(0.271788 -0.0287795 0.0568633)
(0.272937 0.0227112 0.0574343)
(0.193962 0.101979 0.0342802)
(-0.00499371 0.128884 0.00253686)
(-2.43983e-06 -0.323286 -2.04055e-05)
(0.00017739 -0.323429 0.000641132)
(0.119601 0.308401 0.0128845)
(0.11941 0.30578 0.0112438)
(0.11938 -0.305715 0.0113679)
(0.148083 -0.122747 0.0205528)
(0.147223 -0.123122 0.0203096)
(0.14204 -0.12537 0.0188455)
(0.141174 -0.125745 0.0186007)
(0.143771 -0.124621 0.0193345)
(0.142906 -0.124996 0.0190901)
(0.144635 -0.124247 0.0195787)
(0.146361 -0.123497 0.0200662)
(0.145499 -0.123872 0.0198226)
(0.147223 0.123122 0.0203096)
(0.148083 0.122747 0.0205528)
(0.146361 0.123497 0.0200662)
(0.145499 0.123872 0.0198226)
(0.144635 0.124247 0.0195787)
(0.143771 0.124621 0.0193345)
(0.135089 -0.128365 0.0168818)
(0.134217 -0.128739 0.0166356)
(0.13683 -0.127616 0.0173738)
(0.13596 -0.127991 0.0171278)
(0.1377 -0.127242 0.0176195)
(0.139438 -0.126494 0.0181105)
(0.13857 -0.126868 0.0178651)
(0.140306 -0.126119 0.0183557)
(0.142906 0.124996 0.0190901)
(0.14204 0.12537 0.0188455)
(0.141174 0.125745 0.0186007)
(0.140306 0.126119 0.0183557)
(0.139438 0.126494 0.0181105)
(0.13857 0.126868 0.0178651)
(0.1377 0.127242 0.0176195)
(0.13683 0.127616 0.0173738)
(0.120223 0.134721 0.0126824)
(0.121975 0.133973 0.0131774)
(0.122851 0.133599 0.0134248)
(0.123727 0.133226 0.0136722)
(0.124602 0.132852 0.0139196)
(0.125478 0.132478 0.0141669)
(0.126353 0.132104 0.0144142)
(0.127228 0.13173 0.0146614)
(0.128103 0.131357 0.0149085)
(0.128978 0.130983 0.0151555)
(0.129852 0.130609 0.0154025)
(0.130726 0.130235 0.0156493)
(0.131599 0.129861 0.0158961)
(0.132472 0.129487 0.0161427)
(0.133345 0.129113 0.0163892)
(0.134217 0.128739 0.0166356)
(0.135089 0.128365 0.0168818)
(0.13596 0.127991 0.0171278)
(0.128978 -0.130983 0.0151555)
(0.128103 -0.131357 0.0149085)
(0.130726 -0.130235 0.0156493)
(0.129852 -0.130609 0.0154025)
(0.131599 -0.129861 0.0158961)
(0.133345 -0.129113 0.0163892)
(0.132472 -0.129487 0.0161427)
(0.120223 -0.134721 0.0126824)
(0.121099 -0.134347 0.0129299)
(0.123727 -0.133226 0.0136722)
(0.124602 -0.132852 0.0139196)
(0.125478 -0.132478 0.0141669)
(0.126353 -0.132104 0.0144142)
(0.127228 -0.13173 0.0146614)
(0.119343 0.304914 0.0125434)
(0.119343 0.305616 0.0125434)
(0.119343 0.304213 0.0125434)
(0.1191 0.305265 0.012668)
(0.1191 0.304563 0.012668)
(0.119343 0.303511 0.0125434)
(0.1191 0.303862 0.012668)
(0.119343 0.30281 0.0125434)
(0.1191 0.303161 0.012668)
(0.119343 0.302109 0.0125434)
(0.1191 0.302459 0.012668)
(0.119343 0.301407 0.0125434)
(0.1191 0.301758 0.012668)
(0.119343 0.300706 0.0125434)
(0.1191 0.301057 0.012668)
(0.119343 0.300005 0.0125434)
(0.1191 0.300355 0.012668)
(0.119343 0.299303 0.0125434)
(0.1191 0.299654 0.012668)
(0.119343 0.298602 0.0125434)
(0.1191 0.298953 0.012668)
(0.119343 0.2979 0.0125434)
(0.1191 0.298251 0.012668)
(0.119343 0.297199 0.0125434)
(0.1191 0.29755 0.012668)
(0.119343 0.296498 0.0125434)
(0.1191 0.296849 0.012668)
(0.119343 0.295797 0.0125434)
(0.1191 0.296147 0.012668)
(0.119343 0.295095 0.0125434)
(0.1191 0.295446 0.012668)
(0.119343 0.294394 0.0125434)
(0.1191 0.294744 0.012668)
(0.119343 0.293692 0.0125434)
(0.1191 0.294043 0.012668)
(0.119343 0.292991 0.0125434)
(0.1191 0.293342 0.012668)
(0.119343 0.29229 0.0125434)
(0.1191 0.29264 0.012668)
(0.119343 0.291588 0.0125434)
(0.1191 0.291939 0.012668)
(0.119343 0.290887 0.0125434)
(0.1191 0.291238 0.012668)
(0.119343 0.290186 0.0125434)
(0.1191 0.290536 0.012668)
(0.119343 0.289484 0.0125434)
(0.1191 0.289835 0.012668)
(0.119343 0.288783 0.0125434)
(0.1191 0.289133 0.012668)
(0.119343 0.288081 0.0125434)
(0.1191 0.288432 0.012668)
(0.119343 0.28738 0.0125434)
(0.1191 0.287731 0.012668)
(0.119343 0.286679 0.0125434)
(0.1191 0.28703 0.012668)
(0.119343 0.285977 0.0125434)
(0.1191 0.286328 0.012668)
(0.119343 0.285276 0.0125434)
(0.1191 0.285627 0.012668)
(0.119343 0.284575 0.0125434)
(0.1191 0.284925 0.012668)
(0.119343 0.283873 0.0125434)
(0.1191 0.284224 0.012668)
(0.119343 0.283172 0.0125434)
(0.1191 0.283523 0.012668)
(0.119343 0.282471 0.0125434)
(0.1191 0.282821 0.012668)
(0.119343 0.281769 0.0125434)
(0.1191 0.28212 0.012668)
(0.119343 0.281068 0.0125434)
(0.1191 0.281419 0.012668)
(0.119343 0.280367 0.0125434)
(0.1191 0.280717 0.012668)
(0.119343 0.279665 0.0125434)
(0.1191 0.280016 0.012668)
(0.119343 0.278964 0.0125434)
(0.1191 0.279314 0.012668)
(0.119343 0.278262 0.0125434)
(0.1191 0.278613 0.012668)
(0.119343 0.277561 0.0125434)
(0.1191 0.277912 0.012668)
(0.119343 0.27686 0.0125434)
(0.1191 0.277211 0.012668)
(0.119343 0.276158 0.0125434)
(0.1191 0.276509 0.012668)
(0.119343 0.275457 0.0125434)
(0.1191 0.275808 0.012668)
(0.119343 0.274756 0.0125434)
(0.1191 0.275106 0.012668)
(0.119343 0.274054 0.0125434)
(0.1191 0.274405 0.012668)
(0.119343 0.273353 0.0125434)
(0.1191 0.273704 0.012668)
(0.119343 0.272652 0.0125434)
(0.1191 0.273002 0.012668)
(0.119343 0.27195 0.0125434)
(0.1191 0.272301 0.012668)
(0.119343 0.271249 0.0125434)
(0.1191 0.2716 0.012668)
(0.119343 0.270548 0.0125434)
(0.1191 0.270898 0.012668)
(0.119343 0.269846 0.0125434)
(0.1191 0.270197 0.012668)
(0.119343 0.269145 0.0125434)
(0.1191 0.269495 0.012668)
(0.119343 0.268443 0.0125434)
(0.1191 0.268794 0.012668)
(0.119343 0.267742 0.0125434)
(0.1191 0.268093 0.012668)
(0.119343 0.267041 0.0125434)
(0.1191 0.267391 0.012668)
(0.119343 0.266339 0.0125434)
(0.1191 0.26669 0.012668)
(0.119343 0.265638 0.0125434)
(0.1191 0.265989 0.012668)
(0.119343 0.264937 0.0125434)
(0.1191 0.265287 0.012668)
(0.119343 0.264235 0.0125434)
(0.1191 0.264586 0.012668)
(0.119343 0.263534 0.0125434)
(0.1191 0.263885 0.012668)
(0.119343 0.262833 0.0125434)
(0.1191 0.263183 0.012668)
(0.119343 0.262131 0.0125434)
(0.1191 0.262482 0.012668)
(0.119343 0.26143 0.0125434)
(0.1191 0.261781 0.012668)
(0.119343 0.260729 0.0125434)
(0.1191 0.261079 0.012668)
(0.119343 0.260027 0.0125434)
(0.1191 0.260378 0.012668)
(0.119343 0.259326 0.0125434)
(0.1191 0.259676 0.012668)
(0.119343 0.258624 0.0125434)
(0.1191 0.258975 0.012668)
(0.119343 0.257923 0.0125434)
(0.1191 0.258274 0.012668)
(0.119343 0.257222 0.0125434)
(0.1191 0.257572 0.012668)
(0.119343 0.25652 0.0125434)
(0.1191 0.256871 0.012668)
(0.119343 0.255819 0.0125434)
(0.1191 0.25617 0.012668)
(0.119343 0.255118 0.0125434)
(0.1191 0.255468 0.012668)
(0.119343 0.254416 0.0125434)
(0.1191 0.254767 0.012668)
(0.119343 0.253715 0.0125434)
(0.1191 0.254066 0.012668)
(0.119343 0.253014 0.0125434)
(0.1191 0.253364 0.012668)
(0.119343 0.252312 0.0125434)
(0.1191 0.252663 0.012668)
(0.119343 0.251611 0.0125434)
(0.1191 0.251961 0.012668)
(0.119343 0.25091 0.0125434)
(0.1191 0.25126 0.012668)
(0.119343 0.250208 0.0125434)
(0.1191 0.250559 0.012668)
(0.119343 0.249507 0.0125434)
(0.1191 0.249858 0.012668)
(0.119343 0.248805 0.0125434)
(0.1191 0.249156 0.012668)
(0.119343 0.248104 0.0125434)
(0.1191 0.248455 0.012668)
(0.119343 0.247403 0.0125434)
(0.1191 0.247753 0.012668)
(0.119343 0.246701 0.0125434)
(0.1191 0.247052 0.012668)
(0.119343 0.246 0.0125434)
(0.1191 0.246351 0.012668)
(0.119343 0.245299 0.0125434)
(0.1191 0.245649 0.012668)
(0.119343 0.244597 0.0125434)
(0.1191 0.244948 0.012668)
(0.119343 0.243896 0.0125434)
(0.1191 0.244247 0.012668)
(0.119343 0.243195 0.0125434)
(0.1191 0.243545 0.012668)
(0.119343 0.242493 0.0125434)
(0.1191 0.242844 0.012668)
(0.119343 0.241792 0.0125434)
(0.1191 0.242142 0.012668)
(0.119343 0.241091 0.0125434)
(0.1191 0.241441 0.012668)
(0.119343 0.240389 0.0125434)
(0.1191 0.24074 0.012668)
(0.119343 0.239688 0.0125434)
(0.1191 0.240038 0.012668)
(0.119343 0.238986 0.0125434)
(0.1191 0.239337 0.012668)
(0.119343 0.238285 0.0125434)
(0.1191 0.238636 0.012668)
(0.119343 0.237584 0.0125434)
(0.1191 0.237934 0.012668)
(0.119343 0.236882 0.0125434)
(0.1191 0.237233 0.012668)
(0.119343 0.236181 0.0125434)
(0.1191 0.236532 0.012668)
(0.119343 0.23548 0.0125434)
(0.1191 0.23583 0.012668)
(0.119343 0.234778 0.0125434)
(0.1191 0.235129 0.012668)
(0.119343 0.234077 0.0125434)
(0.1191 0.234428 0.012668)
(0.119343 0.233376 0.0125434)
(0.1191 0.233726 0.012668)
(0.119343 0.232674 0.0125434)
(0.1191 0.233025 0.012668)
(0.119343 0.231973 0.0125434)
(0.1191 0.232323 0.012668)
(0.119343 0.231272 0.0125434)
(0.1191 0.231622 0.012668)
(0.119343 0.23057 0.0125434)
(0.1191 0.230921 0.012668)
(0.119343 0.229869 0.0125434)
(0.1191 0.230219 0.012668)
(0.119343 0.229167 0.0125434)
(0.1191 0.229518 0.012668)
(0.119343 0.228466 0.0125434)
(0.1191 0.228817 0.012668)
(0.119343 0.227765 0.0125434)
(0.1191 0.228115 0.012668)
(0.119343 0.227063 0.0125434)
(0.1191 0.227414 0.012668)
(0.119343 0.226362 0.0125434)
(0.1191 0.226713 0.012668)
(0.119343 0.225661 0.0125434)
(0.1191 0.226011 0.012668)
(0.119343 0.224959 0.0125434)
(0.1191 0.22531 0.012668)
(0.119343 0.224258 0.0125434)
(0.1191 0.224609 0.012668)
(0.119343 0.223557 0.0125434)
(0.1191 0.223907 0.012668)
(0.119343 0.222855 0.0125434)
(0.1191 0.223206 0.012668)
(0.119343 0.222154 0.0125434)
(0.1191 0.222504 0.012668)
(0.119343 0.221452 0.0125434)
(0.1191 0.221803 0.012668)
(0.119343 0.220751 0.0125434)
(0.1191 0.221102 0.012668)
(0.119343 0.22005 0.0125434)
(0.1191 0.2204 0.012668)
(0.119343 0.219348 0.0125434)
(0.1191 0.219699 0.012668)
(0.119343 0.218647 0.0125434)
(0.1191 0.218998 0.012668)
(0.119343 0.217946 0.0125434)
(0.1191 0.218296 0.012668)
(0.119343 0.217244 0.0125434)
(0.1191 0.217595 0.012668)
(0.119343 0.216543 0.0125434)
(0.1191 0.216894 0.012668)
(0.119343 0.215842 0.0125434)
(0.1191 0.216192 0.012668)
(0.119343 0.21514 0.0125434)
(0.1191 0.215491 0.012668)
(0.119343 0.214439 0.0125434)
(0.1191 0.214789 0.012668)
(0.119343 0.213738 0.0125434)
(0.1191 0.214088 0.012668)
(0.119343 0.213036 0.0125434)
(0.1191 0.213387 0.012668)
(0.119343 0.212335 0.0125434)
(0.1191 0.212685 0.012668)
(0.119343 0.211633 0.0125434)
(0.1191 0.211984 0.012668)
(0.119343 0.210932 0.0125434)
(0.1191 0.211283 0.012668)
(0.119343 0.210231 0.0125434)
(0.1191 0.210581 0.012668)
(0.119343 0.209529 0.0125434)
(0.1191 0.20988 0.012668)
(0.119343 0.208828 0.0125434)
(0.1191 0.209179 0.012668)
(0.119343 0.208127 0.0125434)
(0.1191 0.208477 0.012668)
(0.119343 0.207425 0.0125434)
(0.1191 0.207776 0.012668)
(0.119343 0.206724 0.0125434)
(0.1191 0.207075 0.012668)
(0.119343 0.206023 0.0125434)
(0.1191 0.206373 0.012668)
(0.119343 0.205321 0.0125434)
(0.1191 0.205672 0.012668)
(0.119343 0.20462 0.0125434)
(0.1191 0.20497 0.012668)
(0.119343 0.203919 0.0125434)
(0.1191 0.204269 0.012668)
(0.119343 0.203217 0.0125434)
(0.1191 0.203568 0.012668)
(0.119343 0.202516 0.0125434)
(0.1191 0.202866 0.012668)
(0.119343 0.201814 0.0125434)
(0.1191 0.202165 0.012668)
(0.119343 0.201113 0.0125434)
(0.1191 0.201464 0.012668)
(0.119343 0.200412 0.0125434)
(0.1191 0.200762 0.012668)
(0.119343 0.19971 0.0125434)
(0.1191 0.200061 0.012668)
(0.119343 0.199009 0.0125434)
(0.1191 0.19936 0.012668)
(0.119343 0.198308 0.0125434)
(0.1191 0.198658 0.012668)
(0.119343 0.197606 0.0125434)
(0.1191 0.197957 0.012668)
(0.119343 0.196905 0.0125434)
(0.1191 0.197256 0.012668)
(0.119343 0.196204 0.0125434)
(0.1191 0.196554 0.012668)
(0.119343 0.195502 0.0125434)
(0.1191 0.195853 0.012668)
(0.119343 0.194801 0.0125434)
(0.1191 0.195151 0.012668)
(0.119343 0.194099 0.0125434)
(0.1191 0.19445 0.012668)
(0.119343 0.193398 0.0125434)
(0.1191 0.193749 0.012668)
(0.119343 0.192697 0.0125434)
(0.1191 0.193047 0.012668)
(0.119343 0.191995 0.0125434)
(0.1191 0.192346 0.012668)
(0.119343 0.191294 0.0125434)
(0.1191 0.191645 0.012668)
(0.119343 0.190593 0.0125434)
(0.1191 0.190943 0.012668)
(0.119343 0.189891 0.0125434)
(0.1191 0.190242 0.012668)
(0.119343 0.18919 0.0125434)
(0.1191 0.189541 0.012668)
(0.119343 0.188489 0.0125434)
(0.1191 0.188839 0.012668)
(0.119343 0.187787 0.0125434)
(0.1191 0.188138 0.012668)
(0.119343 0.187086 0.0125434)
(0.1191 0.187437 0.012668)
(0.119343 0.186384 0.0125434)
(0.1191 0.186735 0.012668)
(0.119343 0.185683 0.0125434)
(0.1191 0.186034 0.012668)
(0.119343 0.184982 0.0125434)
(0.1191 0.185333 0.012668)
(0.119343 0.18428 0.0125434)
(0.1191 0.184631 0.012668)
(0.119343 0.183579 0.0125434)
(0.1191 0.18393 0.012668)
(0.119343 0.182878 0.0125434)
(0.1191 0.183228 0.012668)
(0.119343 0.182176 0.0125434)
(0.1191 0.182527 0.012668)
(0.119343 0.181475 0.0125434)
(0.1191 0.181826 0.012668)
(0.119343 0.180774 0.0125434)
(0.1191 0.181124 0.012668)
(0.119343 0.180072 0.0125434)
(0.1191 0.180423 0.012668)
(0.119343 0.179371 0.0125434)
(0.1191 0.179722 0.012668)
(0.119343 0.17867 0.0125434)
(0.1191 0.17902 0.012668)
(0.119343 0.177968 0.0125434)
(0.1191 0.178319 0.012668)
(0.119343 0.177267 0.0125434)
(0.1191 0.177618 0.012668)
(0.119343 0.176565 0.0125434)
(0.1191 0.176916 0.012668)
(0.119343 0.175864 0.0125434)
(0.1191 0.176215 0.012668)
(0.119343 0.175163 0.0125434)
(0.1191 0.175513 0.012668)
(0.119343 0.174461 0.0125434)
(0.1191 0.174812 0.012668)
(0.119343 0.17376 0.0125434)
(0.1191 0.174111 0.012668)
(0.119343 0.173059 0.0125434)
(0.1191 0.173409 0.012668)
(0.119343 0.172357 0.0125434)
(0.1191 0.172708 0.012668)
(0.119343 0.171656 0.0125434)
(0.1191 0.172007 0.012668)
(0.119343 0.170955 0.0125434)
(0.1191 0.171305 0.012668)
(0.119343 0.170253 0.0125434)
(0.1191 0.170604 0.012668)
(0.119343 0.169552 0.0125434)
(0.1191 0.169903 0.012668)
(0.119343 0.16885 0.0125434)
(0.1191 0.169201 0.012668)
(0.119343 0.168149 0.0125434)
(0.1191 0.1685 0.012668)
(0.119343 0.167448 0.0125434)
(0.1191 0.167799 0.012668)
(0.119343 0.166746 0.0125434)
(0.1191 0.167097 0.012668)
(0.119343 0.166045 0.0125434)
(0.1191 0.166396 0.012668)
(0.119343 0.165344 0.0125434)
(0.1191 0.165694 0.012668)
(0.119343 0.164642 0.0125434)
(0.1191 0.164993 0.012668)
(0.119343 0.163941 0.0125434)
(0.1191 0.164292 0.012668)
(0.119343 0.16324 0.0125434)
(0.1191 0.16359 0.012668)
(0.119343 0.162538 0.0125434)
(0.1191 0.162889 0.012668)
(0.119343 0.161837 0.0125434)
(0.1191 0.162188 0.012668)
(0.119343 0.161136 0.0125434)
(0.1191 0.161486 0.012668)
(0.119343 0.160434 0.0125434)
(0.1191 0.160785 0.012668)
(0.119343 0.159733 0.0125434)
(0.1191 0.160084 0.012668)
(0.119343 0.159031 0.0125434)
(0.1191 0.159382 0.012668)
(0.119343 0.15833 0.0125434)
(0.1191 0.158681 0.012668)
(0.119343 0.157629 0.0125434)
(0.1191 0.15798 0.012668)
(0.119343 0.156927 0.0125434)
(0.1191 0.157278 0.012668)
(0.119343 0.156226 0.0125434)
(0.1191 0.156577 0.012668)
(0.119343 0.155525 0.0125434)
(0.1191 0.155875 0.012668)
(0.119343 0.154823 0.0125434)
(0.1191 0.155174 0.012668)
(0.119343 0.154122 0.0125434)
(0.1191 0.154473 0.012668)
(0.119343 0.153421 0.0125434)
(0.1191 0.153771 0.012668)
(0.119343 0.152719 0.0125434)
(0.1191 0.15307 0.012668)
(0.119343 0.152018 0.0125434)
(0.1191 0.152369 0.012668)
(0.119343 0.151317 0.0125434)
(0.1191 0.151667 0.012668)
(0.119343 0.150615 0.0125434)
(0.1191 0.150966 0.012668)
(0.119343 0.149914 0.0125434)
(0.1191 0.150265 0.012668)
(0.119343 0.149212 0.0125434)
(0.1191 0.149563 0.012668)
(0.119343 0.148511 0.0125434)
(0.1191 0.148862 0.012668)
(0.119343 0.14781 0.0125434)
(0.1191 0.148161 0.012668)
(0.119343 0.147108 0.0125434)
(0.1191 0.147459 0.012668)
(0.119343 0.146407 0.0125434)
(0.1191 0.146758 0.012668)
(0.119343 0.145706 0.0125434)
(0.1191 0.146056 0.012668)
(0.119343 0.145004 0.0125434)
(0.1191 0.145355 0.012668)
(0.119343 0.144303 0.0125434)
(0.1191 0.144654 0.012668)
(0.119343 0.143602 0.0125434)
(0.1191 0.143952 0.012668)
(0.119343 0.1429 0.0125434)
(0.1191 0.143251 0.012668)
(0.119343 0.142199 0.0125434)
(0.1191 0.14255 0.012668)
(0.119343 0.141497 0.0125434)
(0.1191 0.141848 0.012668)
(0.119343 0.140796 0.0125434)
(0.1191 0.141147 0.012668)
(0.119343 0.140095 0.0125434)
(0.1191 0.140446 0.012668)
(0.119343 0.139393 0.0125434)
(0.1191 0.139744 0.012668)
(0.119343 0.138692 0.0125434)
(0.1191 0.139043 0.012668)
(0.119343 0.137991 0.0125434)
(0.1191 0.138341 0.012668)
(0.119343 0.137289 0.0125434)
(0.1191 0.13764 0.012668)
(0.119343 0.136588 0.0125434)
(0.1191 0.136939 0.012668)
(0.119343 0.135887 0.0125434)
(0.1191 0.136237 0.012668)
(0.119326 0.306302 0.0126445)
(0.119299 0.306998 0.0126701)
(0.131511 0.363 -0.00756077)
(0.13173 0.36293 -0.00964761)
(0.131216 0.362873 -0.00475316)
(0.130942 0.362527 -0.00215205)
(0.130707 0.362047 8.62554e-05)
(0.130433 0.361263 0.00269757)
(0.13015 0.360183 0.00538782)
(0.129937 0.359167 0.00741652)
(0.12967 0.357617 0.00995358)
(0.129488 0.356354 0.0116857)
(0.129271 0.354587 0.0137522)
(0.12906 0.35254 0.0157542)
(0.128899 0.350685 0.017286)
(0.128769 0.348946 0.018523)
(0.12865 0.34709 0.019661)
(0.128541 0.345108 0.0206928)
(0.12845 0.343102 0.0215645)
(0.128375 0.341105 0.022275)
(0.128311 0.338923 0.0228844)
(0.12826 0.33651 0.0233679)
(0.128227 0.333823 0.0236814)
(0.128218 0.331658 0.0237663)
(0.128226 0.329344 0.0236932)
(0.128254 0.326833 0.0234209)
(0.128299 0.324564 0.0229977)
(0.128374 0.321931 0.0222862)
(0.128468 0.319469 0.0213916)
(0.128573 0.317265 0.0203852)
(0.128692 0.315225 0.0192616)
(0.128842 0.313055 0.0178341)
(0.128978 0.311371 0.0165359)
(0.129143 0.309607 0.0149633)
(0.129315 0.308026 0.01333)
(0.129498 0.306569 0.0115874)
(0.129683 0.305302 0.00983334)
(0.12993 0.303866 0.00747558)
(0.130128 0.302911 0.00559231)
(0.13041 0.301813 0.00291481)
(0.130682 0.301015 0.0003268)
(0.130901 0.300546 -0.0017549)
(0.131173 0.300166 -0.00435136)
(0.131432 0.300009 -0.00680944)
(0.131667 0.300035 -0.00904315)
(0.131941 0.30027 -0.0116565)
(0.132163 0.300625 -0.0137699)
(0.13239 0.301145 -0.0159303)
(0.132618 0.301835 -0.0180975)
(0.132831 0.302643 -0.0201213)
(0.133029 0.303548 -0.0220052)
(0.13324 0.304692 -0.0240107)
(0.13343 0.305906 -0.0258229)
(0.133627 0.307368 -0.0276957)
(0.133853 0.309358 -0.0298426)
(0.13402 0.311104 -0.0314345)
(0.134184 0.313111 -0.0329961)
(0.134351 0.315567 -0.0345855)
(0.134466 0.317618 -0.0356823)
(0.134589 0.32032 -0.0368486)
(0.134668 0.322545 -0.0375958)
(0.134739 0.325319 -0.0382792)
(0.134783 0.327964 -0.0386902)
(0.134801 0.330344 -0.0388671)
(0.134802 0.332563 -0.0388704)
(0.134781 0.335194 -0.0386721)
(0.134743 0.337501 -0.0383146)
(0.134689 0.339713 -0.0378046)
(0.134619 0.341898 -0.0371321)
(0.134537 0.343913 -0.0363531)
(0.134444 0.345814 -0.0354668)
(0.134303 0.348188 -0.0341304)
(0.134159 0.350221 -0.032755)
(0.134008 0.352034 -0.031317)
(0.133757 0.354535 -0.0289294)
(0.133543 0.356285 -0.0268951)
(0.133342 0.357676 -0.024988)
(0.133123 0.358964 -0.0229027)
(0.13291 0.360015 -0.0208712)
(0.132708 0.360844 -0.0189525)
(0.132489 0.361579 -0.016864)
(0.132263 0.362166 -0.0147208)
(0.132004 0.362644 -0.012256)
(0.118913 0.13562 0.0122102)
(0.119343 -0.135887 0.0125434)
(0.119343 -0.136588 0.0125434)
(0.119343 -0.137289 0.0125434)
(0.119343 -0.137991 0.0125434)
(0.119343 -0.138692 0.0125434)
(0.119343 -0.139393 0.0125434)
(0.119343 -0.140095 0.0125434)
(0.119343 -0.140796 0.0125434)
(0.119343 -0.141497 0.0125434)
(0.119343 -0.142199 0.0125434)
(0.119343 -0.1429 0.0125434)
(0.119343 -0.143602 0.0125434)
(0.119343 -0.144303 0.0125434)
(0.119343 -0.145004 0.0125434)
(0.119343 -0.145706 0.0125434)
(0.119343 -0.146407 0.0125434)
(0.119343 -0.147108 0.0125434)
(0.119343 -0.14781 0.0125434)
(0.119343 -0.148511 0.0125434)
(0.119343 -0.149212 0.0125434)
(0.119343 -0.149914 0.0125434)
(0.119343 -0.150615 0.0125434)
(0.119343 -0.151317 0.0125434)
(0.119343 -0.152018 0.0125434)
(0.119343 -0.152719 0.0125434)
(0.119343 -0.153421 0.0125434)
(0.119343 -0.154122 0.0125434)
(0.119343 -0.154823 0.0125434)
(0.119343 -0.155525 0.0125434)
(0.119343 -0.156226 0.0125434)
(0.119343 -0.156927 0.0125434)
(0.119343 -0.157629 0.0125434)
(0.119343 -0.15833 0.0125434)
(0.119343 -0.159031 0.0125434)
(0.119343 -0.159733 0.0125434)
(0.119343 -0.160434 0.0125434)
(0.119343 -0.161136 0.0125434)
(0.119343 -0.161837 0.0125434)
(0.119343 -0.162538 0.0125434)
(0.119343 -0.16324 0.0125434)
(0.119343 -0.163941 0.0125434)
(0.119343 -0.164642 0.0125434)
(0.119343 -0.165344 0.0125434)
(0.119343 -0.166045 0.0125434)
(0.119343 -0.166746 0.0125434)
(0.119343 -0.167448 0.0125434)
(0.119343 -0.168149 0.0125434)
(0.119343 -0.16885 0.0125434)
(0.119343 -0.169552 0.0125434)
(0.119343 -0.170253 0.0125434)
(0.119343 -0.170955 0.0125434)
(0.119343 -0.171656 0.0125434)
(0.119343 -0.172357 0.0125434)
(0.119343 -0.173059 0.0125434)
(0.119343 -0.17376 0.0125434)
(0.119343 -0.174461 0.0125434)
(0.119343 -0.175163 0.0125434)
(0.119343 -0.175864 0.0125434)
(0.119343 -0.176565 0.0125434)
(0.119343 -0.177267 0.0125434)
(0.119343 -0.177968 0.0125434)
(0.119343 -0.17867 0.0125434)
(0.119343 -0.179371 0.0125434)
(0.119343 -0.180072 0.0125434)
(0.119343 -0.180774 0.0125434)
(0.119343 -0.181475 0.0125434)
(0.119343 -0.182176 0.0125434)
(0.119343 -0.182878 0.0125434)
(0.119343 -0.183579 0.0125434)
(0.119343 -0.18428 0.0125434)
(0.119343 -0.184982 0.0125434)
(0.119343 -0.185683 0.0125434)
(0.119343 -0.186384 0.0125434)
(0.119343 -0.187086 0.0125434)
(0.119343 -0.187787 0.0125434)
(0.119343 -0.188489 0.0125434)
(0.119343 -0.18919 0.0125434)
(0.119343 -0.189891 0.0125434)
(0.119343 -0.190593 0.0125434)
(0.119343 -0.191294 0.0125434)
(0.119343 -0.191995 0.0125434)
(0.119343 -0.192697 0.0125434)
(0.119343 -0.193398 0.0125434)
(0.119343 -0.194099 0.0125434)
(0.119343 -0.194801 0.0125434)
(0.119343 -0.195502 0.0125434)
(0.119343 -0.196204 0.0125434)
(0.119343 -0.196905 0.0125434)
(0.119343 -0.197606 0.0125434)