/*--------------------------------*- C++ -*----------------------------------*\
| =========                 |                                                 |
| \\      /  F ield         | OpenFOAM: The Open Source CFD Toolbox           |
|  \\    /   O peration     | Version:  v2112                                 |
|   \\  /    A nd           | Website:  www.openfoam.com                      |
|    \\/     M anipulation  |                                                 |
\*---------------------------------------------------------------------------*/
FoamFile
{
    version     2.0;
    format      ascii;
    class       volVectorField;
    object      U;
}
// * * * * * * * * * * * * * * * * * * * * * * * * * * * * * * * * * * * * * //

// Define variables to be used
// * * * * * * * * * * * * * * * 
#include "include/initialConditions"
// * * * * * * * * * * * * * * * 

dimensions      [0 1 -1 0 0 0 0]; // m/s

internalField   uniform $flowVelocity;

boundaryField
{
    inlet
    {
        type  fixedValue;
        value $internalField;
    }

    outlet
    {
        type            inletOutlet;
        inletValue      uniform (0 0 0);
        value           $internalField;
    }

    wing
    {
        type            noSlip; // fixedValue (0 0 0);
    }

    #include "include/frontBackTopBottomPatches"
}


// ************************************************************************* //
