/*--------------------------------*- C++ -*----------------------------------*\
| =========                 |                                                 |
| \\      /  F ield         | OpenFOAM: The Open Source CFD Toolbox           |
|  \\    /   O peration     | Version:  v2112                                 |
|   \\  /    A nd           | Website:  www.openfoam.com                      |
|    \\/     M anipulation  |                                                 |
\*---------------------------------------------------------------------------*/
FoamFile
{
    version     2.0;
    format      ascii;
    class       dictionary;
    object      controlDict;
}
// * * * * * * * * * * * * * * * * * * * * * * * * * * * * * * * * * * * * * //

application     pimpleFoam;

startFrom       startTime;
//startFrom       latestTime;

startTime       0;

stopAt          endTime;

endTime         5;

deltaT          1e-5;

writeControl    adjustable;

writeInterval   1e-1;

purgeWrite      0;

writeFormat     binary;

writePrecision  10;

writeCompression off;

timeFormat      general;

timePrecision   6;

runTimeModifiable true;



adjustTimeStep  yes;    // Allow OpenFOAM to shrink the time step
maxCo           5;    // Maximum Courant Number (Keep this near 1.0 for stability)
maxDeltaT       0.001;  // Cap the maximum time step size


functions
{
    // Name of the function object (can be anything, e.g. hydroForces)
    hydroForces
    {
        type            forces;
        libs            (forces);
        
        // Write data every time step
        writeControl    timeStep;
        writeInterval   1;

        // 1. DENSITY FIX (Critical for pimpleFoam)
        rho             rhoInf;
        rhoInf          1025;   // Sea water density

        // 2. PATCHES: List the names of your boat patches here
        // e.g. ( hull foils rudder )
        patches         ( hydro ); 

        // 3. CENTER OF ROTATION
        // Set this to your Pivot point to see moments relative to the tow hitch
        // Pivot: (-0.1409 0 0.0379)
        CofR            (-0.1409 0 -0.02);
        
        // 4. ORIENTATION
        // Usually (0 0 0) for center of rotation, but some versions need explicit origin
       // origin          (-0.1409 0 0.0379); 
    }
}
// ************************************************************************* //
