/*--------------------------------*- C++ -*----------------------------------*\
| =========                 |                                                 |
| \\      /  F ield         | OpenFOAM: The Open Source CFD Toolbox           |
|  \\    /   O peration     | Version:  v2412                                 |
|   \\  /    A nd           | Web:      www.OpenFOAM.com                      |
|    \\/     M anipulation  |                                                 |
\*---------------------------------------------------------------------------*/
FoamFile
{
    version     2.0;
    format      ascii;
    class       dictionary;
    object      dynamicMeshDict;
}
// * * * * * * * * * * * * * * * * * * * * * * * * * * * * * * * * * * * * * //

dynamicFvMesh      dynamicMotionSolverFvMesh;

motionSolverLibs   ("libsixDoFRigidBodyMotion.so");

solver             sixDoFRigidBodyMotion;

sixDoFRigidBodyMotionCoeffs
{
    // --- 1. MESH MORPHING ---
    patches         ( hydro ); 
    innerDistance   2.0;
    outerDistance   30.0;

    //Define density so solver can convert kinematic pressure to force
    rho             rhoInf;
    rhoInf          1025; // Density of water (kg/m^3)
    

    // --- 2. MASS PROPERTIES (-5 Deg Rotated) ---
    mass            4.1936;
    centreOfMass    (0.0694 0 -0.0067);        // with a -3.3° pitch
    momentOfInertia (0.3552 0.0100 0.3622);

    solver
    {
        type Newmark;
    }

    // --- 3. SOLVER CONTROLS ---
    report          on;
    accelerationRelaxation 0.7; 
    accelerationDamping    0.95; 

    // --- 4. CONSTRAINTS ---
    // 1. UNLOCK DEGREES OF FREEDOM
    // We only lock Sway (Y), Roll (X), and Yaw (Z).
    // We FREE Surge (X), Heave (Z), and Pitch (Y).
    constraints
    {
        // 1. ROTATION: Allow Pitch Only (Axis Y)
        // This locks Roll and Yaw, but permits rotation around Y.
        lockRotation
        {
            sixDoFRigidBodyMotionConstraint axis;
            axis (0 1 0); 
        }

        // 2. TRANSLATION: Allow X-Z Plane (Surge + Heave)
        // The "plane" constraint allows motion IN the plane, and locks motion 
        // perpendicular to it (Normal Y).
        // This locks Sway, but permits Surge and Heave.
        lockSway
        {
            sixDoFRigidBodyMotionConstraint plane;
            normal (0 1 0);
        }
    }
    

    // --- 5. RESTRAINTS ---
    restraints
    {

        towingLine
        {
            sixDoFRigidBodyMotionRestraint linearSpring;

            // 1. High Attachment Point (The Lever)
            refAttachmentPt (0.0564 0 0.0644);    //Attachement point with a -3.3° pitch

            // 2. Anchor placed 1000m away at 30 degrees
            // (-0.14 - 866 = -866.14)
            // (0.15 + 500 = 500.15)
            anchor          (-866.1409 0 500.15);

            // 3. Stiffness tuned to give exactly 754 N at 1000m
            stiffness       0.754; 
        
            // 4. Zero rest length ensures F = k * Distance
            restLength      0;
        
            // 5. Minimal damping to prevent spring vibration
            damping         1; 
        }

        turbineLeft
        {
            sixDoFRigidBodyMotionRestraint  linearSpring;

            // 1. ANCHOR: Place this VERY far ahead in the direction of thrust (+X)
            // Global coordinate: (10000 meters, turbineY, turbineZ)
            anchor          (10000 0.3315 -0.0093);

            // 2. ATTACHMENT: The location of the turbine on the boat (Local Coords)
            // This automatically handles the Moment/Torque calculation for you!
            refAttachmentPt (0.0689 0.3315 -0.0027); // (TurbinePos - CoM)

            // 3. STIFFNESS: F / Distance = 300 / 10000
            stiffness       0.03;

            // 4. DAMPING: Keep 0 to avoid drag
            damping         0;

            // 5. REST LENGTH: 0 means it pulls constantly toward the anchor
            restLength      0;
        }

        turbineRight
        {
            sixDoFRigidBodyMotionRestraint  linearSpring;
            
            // Anchor far ahead (+X) aligned with right turbine
            anchor          (10000 -0.3315 -0.0093);

            // Local attachment point for right turbine
            refAttachmentPt (0.0689 -0.3315 -0.0027); 

            stiffness       0.03;
            damping         0;
            restLength      0;
        }

        // Global damper acting at CoM (No Pitch Moment)
        surgeKiller
        {
           sixDoFRigidBodyMotionRestraint linearDamper;
           coeff           3000;   // Adjust this braking power as needed (start high to stop the surge)
        }

            // 1. LOCK ROLL (X-Axis)
        lockRoll
        {
            sixDoFRigidBodyMotionRestraint  linearAxialAngularSpring;
            axis            (1 0 0); // Acts on X only
            stiffness       5000;    // High stiffness
            damping         500;     // Moderate damping
            referenceAngle  0;
        }

        // 2. LOCK YAW (Z-Axis)
        lockYaw
        {
            sixDoFRigidBodyMotionRestraint  linearAxialAngularSpring;
            axis            (0 0 1); // Acts on Z only
            stiffness       5000;    // High stiffness
            damping         500;     // Moderate damping
            referenceAngle  0;
        }

        // 3. DAMP PITCH (Y-Axis) - THE BACKFLIP STOPPER
        dampPitch
        {
            sixDoFRigidBodyMotionRestraint  linearAxialAngularSpring;
            axis            (0 1 0); // Acts on Y only
            
            // CRITICAL:
            stiffness       0;       // Zero stiffness = Free to rotate/pitch
            damping        50;      // Damping ONLY. Stops the startup backflip.
            
            referenceAngle  0;
        }
    }
}
